case33bw_mobi.py
# -*- coding: utf-8 -*-
"""
Created on Wed Mar  2 14:05:29 2022

@author: 李程远
"""
from numpy import array

def case33bw():
    ppc = {"version": "2"}

    ##-----  Power Flow Data  -----##
    ## system MVA base
    ppc["baseMVA"] = 100

    ## bus data
    # bus_i, type, Pd, Qd, Gs, Bs, area, Vm, Va, baseKV, zone, Vmax, Vmin
    ppc["bus"] = array([
        [1, 3, 0, 0, 0, 0, 1, 1, 0, 12.66, 1, 1, 1],
        [2, 1, 0.1, 0.06, 0, 0, 1, 1, 0, 12.66, 1, 1.1, 0.9],
        [3, 1, 0.09, 0.04, 0, 0, 1, 1, 0, 12.66, 1, 1.1, 0.9],
        [4, 1, 0.12, 0.08, 0, 0, 1, 1, 0, 12.66, 1, 1.1, 0.9],
        [5, 1, 0.06, 0.03, 0, 0, 1, 1, 0, 12.66, 1, 1.1, 0.9],
        [6, 1, 0.06, 0.02, 0, 0, 1, 1, 0, 12.66, 1, 1.1, 0.9],
        [7, 1, 0.2, 0.1, 0, 0, 1, 1, 0, 12.66, 1, 1.1, 0.9],
        [8, 1, 0.2, 0.1, 0, 0, 1, 1, 0, 12.66, 1, 1.1, 0.9],
        [9, 1, 0.06, 0.02, 0, 0, 1, 1, 0, 12.66, 1, 1.1, 0.9],
        [10, 1, 0.06, 0.02, 0, 0, 1, 1, 0, 12.66, 1, 1.1, 0.9],
        [11, 1, 0.045, 0.03, 0, 0, 1, 1, 0, 12.66, 1, 1.1, 0.9],
        [12, 1, 0.06, 0.035, 0, 0, 1, 1, 0, 12.66, 1, 1.1, 0.9],
        [13, 1, 0.06, 0.035, 0, 0, 1, 1, 0, 12.66, 1, 1.1, 0.9],
        [14, 1, 0.12, 0.08, 0, 0, 1, 1, 0, 12.66, 1, 1.1, 0.9],
        [15, 1, 0.06, 0.01, 0, 0, 1, 1, 0, 12.66, 1, 1.1, 0.9],
        [16, 1, 0.06, 0.02, 0, 0, 1, 1, 0, 12.66, 1, 1.1, 0.9],
        [17, 1, 0.06, 0.02, 0, 0, 1, 1, 0, 12.66, 1, 1.1, 0.9],
        [18, 1, 0.09, 0.04, 0, 0, 1, 1, 0, 12.66, 1, 1.1, 0.9],
        [19, 1, 0.09, 0.04, 0, 0, 1, 1, 0, 12.66, 1, 1.1, 0.9],
        [20, 1, 0.09, 0.04, 0, 0, 1, 1, 0, 12.66, 1, 1.1, 0.9],
        [21, 1, 0.09, 0.04, 0, 0, 1, 1, 0, 12.66, 1, 1.1, 0.9],
        [22, 1, 0.09, 0.04, 0, 0, 1, 1, 0, 12.66, 1, 1.1, 0.9],
        [23, 1, 0.09, 0.05, 0, 0, 1, 1, 0, 12.66, 1, 1.1, 0.9],
        [24, 1, 0.42, 0.2, 0, 0, 1, 1, 0, 12.66, 1, 1.1, 0.9],
        [25, 1, 0.42, 0.2, 0, 0, 1, 1, 0, 12.66, 1, 1.1, 0.9],
        [26, 1, 0.06, 0.025, 0, 0, 1, 1, 0, 12.66, 1, 1.1, 0.9],
        [27, 1, 0.06, 0.025, 0, 0, 1, 1, 0, 12.66, 1, 1.1, 0.9],
        [28, 1, 0.06, 0.02, 0, 0, 1, 1, 0, 12.66, 1, 1.1, 0.9],
        [29, 1, 0.12, 0.07, 0, 0, 1, 1, 0, 12.66, 1, 1.1, 0.9],
        [30, 1, 0.2, 0.6, 0, 0, 1, 1, 0, 12.66, 1, 1.1, 0.9],
        [31, 1, 0.15, 0.07, 0, 0, 1, 1, 0, 12.66, 1, 1.1, 0.9],
        [32, 1, 0.21, 0.1, 0, 0, 1, 1, 0, 12.66, 1, 1.1, 0.9],
        [33, 1, 0.06, 0.04, 0, 0, 1, 1, 0, 12.66, 1, 1.1, 0.9],
    ])

    ## generator data
    # bus, Pg, Qg, Qmax, Qmin, Vg, mBase, status, Pmax, Pmin, Pc1, Pc2, Qc1min, Qc1max, Qc2min, Qc2max, ramp_agc, ramp_10, ramp_30, ramp_q, apf
    ppc["gen"] = array([
        [1, 0, 0, 10, -10, 1, 100, 1, 10, 0, 0, 0, 0, 0, 0, 0, 0, 0, 0, 0, 0],
    ], dtype='float32')

    ## branch data
    # fbus, tbus, r, x, b, rateA, rateB, rateC, ratio, angle, status, angmin, angmax
    ppc["branch"] = array([
        [1, 2, 0.0575259116, 0.0293244886, 0, 0, 0, 0, 0, 0, 1, -360, 360],
        [2, 3, 0.307595167, 0.15666764, 0, 0, 0, 0, 0, 0, 1, -360, 360],
        [3, 4, 0.228356656, 0.116299674, 0, 0, 0, 0, 0, 0, 1, -360, 360],
        [4, 5, 0.237777928, 0.121103899, 0, 0, 0, 0, 0, 0, 1, -360, 360],
        [5, 6, 0.510994811, 0.441115179, 0, 0, 0, 0, 0, 0, 1, -360, 360],
        [6, 7, 0.116798814, 0.386084969, 0, 0, 0, 0, 0, 0, 1, -360, 360],
        [7, 8, 0.44386045, 0.146684835, 0, 0, 0, 0, 0, 0, 1, -360, 360],
        [8, 9, 0.642643047, 0.461704714, 0, 0, 0, 0, 0, 0, 1, -360, 360],
        [9, 10, 0.651378001, 0.461704714, 0, 0, 0, 0, 0, 0, 1, -360, 360],
        [10, 11, 0.122663712, 0.0405551438, 0, 0, 0, 0, 0, 0, 1, -360, 360],
        [11, 12, 0.233597628, 0.0772419507, 0, 0, 0, 0, 0, 0, 1, -360, 360],
        [12, 13, 0.915922324, 0.720633708, 0, 0, 0, 0, 0, 0, 1, -360, 360],
        [13, 14, 0.337917936, 0.444796338, 0, 0, 0, 0, 0, 0, 1, -360, 360],
        [14, 15, 0.368739846, 0.328184702, 0, 0, 0, 0, 0, 0, 1, -360, 360],
        [15, 16, 0.465635443, 0.340039282, 0, 0, 0, 0, 0, 0, 1, -360, 360],
        [16, 17, 0.804239697, 1.07377542, 0, 0, 0, 0, 0, 0, 1, -360, 360],
        [17, 18, 0.456713311, 0.358133116, 0, 0, 0, 0, 0, 0, 1, -360, 360],
        [2, 19, 0.102323747, 0.0976443077, 0, 0, 0, 0, 0, 0, 1, -360, 360],
        [19, 20, 0.938508419, 0.845668336, 0, 0, 0, 0, 0, 0, 1, -360, 360],
        [20, 21, 0.255497406, 0.298485858, 0, 0, 0, 0, 0, 0, 1, -360, 360],
        [21, 22, 0.442300637, 0.584805173, 0, 0, 0, 0, 0, 0, 1, -360, 360],
        [3, 23, 0.28151509, 0.192356167, 0, 0, 0, 0, 0, 0, 1, -360, 360],
        [23, 24, 0.560284909, 0.442425422, 0, 0, 0, 0, 0, 0, 1, -360, 360],
        [24, 25, 0.559037059, 0.43743402, 0, 0, 0, 0, 0, 0, 1, -360, 360],
        [6, 26, 0.126656834, 0.0645138749, 0, 0, 0, 0, 0, 0, 1, -360, 360],
        [26, 27, 0.177319567, 0.0902819893, 0, 0, 0, 0, 0, 0, 1, -360, 360],
        [27, 28, 0.660736881, 0.582559042, 0, 0, 0, 0, 0, 0, 1, -360, 360],
        [28, 29, 0.501760717, 0.437122057, 0, 0, 0, 0, 0, 0, 1, -360, 360],
        [29, 30, 0.316642084, 0.161284687, 0, 0, 0, 0, 0, 0, 1, -360, 360],
        [30, 31, 0.607952801, 0.600840053, 0, 0, 0, 0, 0, 0, 1, -360, 360],
        [31, 32, 0.193728802, 0.225798562, 0, 0, 0, 0, 0, 0, 1, -360, 360],
        [32, 33, 0.212758523, 0.330805188, 0, 0, 0, 0, 0, 0, 1, -360, 360],
        # [21, 8, 1.24785058, 1.24785058, 0, 0, 0, 0, 0, 0, 0, -360, 360],
        # [9, 15, 1.24785058, 1.24785058, 0, 0, 0, 0, 0, 0, 0, -360, 360],
        # [12, 22, 1.24785058, 1.24785058, 0, 0, 0, 0, 0, 0, 0, -360, 360],
        # [18, 33, 0.311962644, 0.311962644, 0, 0, 0, 0, 0, 0, 0, -360, 360],
        # [25, 29, 0.311962644, 0.311962644, 0, 0, 0, 0, 0, 0, 0, -360, 360],
    ])

    ##-----  OPF Data  -----##
    ## 1, startup, shutdown, n, x1, y1, ..., xn, yn
    ## 2, startup, shutdown, n, c(n-1), ..., c0
    ppc["gencost"] = array([
        [2, 0, 0, 3, 0, 20, 0],
    ], dtype='float32')
    
    
    return ppc
